tests/fuzzer/corpus_json/24_columnar_21_random_010.json
{
  "version": "1.0",
  "type": "input",
  "is_batch": false,
  "attributes": {
    "node": [
      "id",
      "u_rated"
    ],
    "source": [
      "id",
      "node",
      "status",
      "u_ref",
      "u_ref_angle",
      "sk",
      "rx_ratio",
      "z01_ratio"
    ],
    "line": [
      "id",
      "from_node",
      "to_node",
      "from_status",
      "to_status",
      "r1",
      "x1",
      "c1",
      "tan1",
      "r0",
      "x0",
      "c0",
      "tan0",
      "i_n"
    ],
    "sym_load": [
      "id",
      "node",
      "status",
      "type",
      "p_specified",
      "q_specified"
    ],
    "shunt": [
      "id",
      "node",
      "status",
      "g1",
      "b1",
      "g0",
      "b0"
    ]
  },
  "data": {
    "node": [
      [
        0,
        230.0
      ],
      [
        1,
        230.0
      ],
      [
        2,
        230.0
      ],
      [
        3,
        230.0
      ],
      [
        4,
        230.0
      ],
      [
        5,
        230.0
      ],
      [
        6,
        230.0
      ],
      [
        7,
        230.0
      ],
      [
        8,
        230.0
      ],
      [
        9,
        230.0
      ],
      [
        10,
        230.0
      ]
    ],
    "source": [
      [
        11,
        0,
        1,
        1.0156182602268942,
        0.0,
        428946165.7696471,
        0.10304911606975087,
        1.0
      ]
    ],
    "line": [
      [
        12,
        0,
        1,
        1,
        1,
        4.117944362667227,
        3.2673626695058786,
        1.6022955651881965e-07,
        0.0,
        0.3,
        0.3,
        1e-09,
        0.0,
        525.4626660435254
      ],
      [
        13,
        1,
        2,
        1,
        1,
        1.6388640581104656,
        1.2499833834320018,
        9.528169091459116e-07,
        0.0,
        0.3,
        0.3,
        1e-09,
        0.0,
        996.5914226140607
      ],
      [
        14,
        2,
        3,
        1,
        1,
        0.22278191225216515,
        4.300805186431455,
        6.031906109681851e-07,
        0.0,
        0.3,
        0.3,
        1e-09,
        0.0,
        387.7899260599267
      ],
      [
        15,
        3,
        4,
        1,
        1,
        1.4180910895335757,
        3.37482423567478,
        4.568311510583056e-07,
        0.0,
        0.3,
        0.3,
        1e-09,
        0.0,
        689.0028706198487
      ],
      [
        16,
        4,
        5,
        1,
        1,
        3.3092316002617554,
        0.664890723561064,
        7.678378139439905e-07,
        0.0,
        0.3,
        0.3,
        1e-09,
        0.0,
        982.589116521079
      ],
      [
        17,
        5,
        6,
        1,
        1,
        4.846940802024594,
        3.066634102733545,
        4.4260632864620895e-08,
        0.0,
        0.3,
        0.3,
        1e-09,
        0.0,
        14.01459271682339
      ],
      [
        18,
        6,
        7,
        1,
        1,
        0.6698626352456694,
        4.7050113569791705,
        3.0286056202907226e-07,
        0.0,
        0.3,
        0.3,
        1e-09,
        0.0,
        372.48414564382216
      ],
      [
        19,
        7,
        8,
        1,
        1,
        4.490981222695941,
        1.5718190247822532,
        5.489821840124055e-07,
        0.0,
        0.3,
        0.3,
        1e-09,
        0.0,
        441.670648047881
      ],
      [
        20,
        8,
        9,
        1,
        1,
        0.3249708806342527,
        2.9227311285096507,
        8.440678976619022e-07,
        0.0,
        0.3,
        0.3,
        1e-09,
        0.0,
        164.85472920353234
      ],
      [
        21,
        9,
        10,
        1,
        1,
        1.1214948434302074,
        2.0643510385742037,
        3.6924869058629016e-08,
        0.0,
        0.3,
        0.3,
        1e-09,
        0.0,
        501.6374636303827
      ]
    ],
    "sym_load": [
      [
        22,
        3,
        1,
        0,
        -70062.3730057197,
        1344.709537262479
      ],
      [
        23,
        4,
        1,
        2,
        -70067.66928297923,
        9275.930788444384
      ],
      [
        24,
        6,
        1,
        0,
        89538.78484469815,
        -1335.369948970285
      ],
      [
        25,
        7,
        1,
        0,
        36157.91391537097,
        -7129.735705665831
      ],
      [
        26,
        8,
        1,
        0,
        -46594.58628932409,
        -3948.5993735584925
      ]
    ],
    "shunt": [
      [
        27,
        0,
        1,
        1.7608943939308365e-05,
        5.456986926134117e-05,
        0.0001,
        0.0001
      ]
    ]
  }
}
